dynamic
static
partial evaluation
cpo
pcf
dynamic terms
dynamic types
type
semantics
terms
term
operational semantics
types
lemma
model
evaluation
partial
language
type nat
nat