boolean algebras
boolean
algebras
zfc using pcf
kappa
depth
construct boolean
constructions
zfc
construct boolean algebras
constructions for boolean
log
deal
implies ind
cardinalities
assuming squares
results on ultraproducts
pcf
assuming
ultraproducts